Circuit: * C:\Users\bluemann\Desktop\files\lts\amp_filter_433MHz - Kopia\amp_filter_433MHz.asc

Direct Newton iteration for .op point succeeded.

Date: Tue Mar 07 08:33:21 2017
Total elapsed time: 0.036 seconds.

tnom = 27
temp = 27
method = trap
totiter = 5
traniter = 0
tranpoints = 0
accept = 0
rejected = 0
matrix size = 22
fillins = 1
solver = Normal
Matrix Compiler1:      67 opcodes
Matrix Compiler2: 1.61 KB object code size

