Circuit: * C:\Users\bluemann\Desktop\files\lts\amp_filter_433MHz\amp_filter_433MHz.asc

Direct Newton iteration for .op point succeeded.

Date: Mon Mar 06 18:22:07 2017
Total elapsed time: 0.012 seconds.

tnom = 27
temp = 27
method = trap
totiter = 4
traniter = 0
tranpoints = 0
accept = 0
rejected = 0
matrix size = 13
fillins = 0
solver = Normal
Matrix Compiler1:      35 opcodes
Matrix Compiler2: 959 bytes object code size

