Circuit: * C:\Users\bluemann\Desktop\files\lts\PUO\current_voltage_conventer.asc

Direct Newton iteration failed to find .op point.  (Use ".option noopiter" to skip.)
Starting Gmin stepping
Gmin = 10
Gmin = 1.07374
Gmin = 0.115292
Gmin = 0.0123794
Gmin = 0.00132923
Gmin = 0.000142725
Gmin = 1.5325e-005
Gmin = 1.6455e-006
Gmin = 1.76685e-007
Gmin = 1.89714e-008
Gmin = 2.03704e-009
Gmin = 2.18725e-010
Gmin = 2.34854e-011
Gmin = 2.52173e-012
Gmin = 2.70769e-013
Gmin = 0
Gmin stepping succeeded in finding the operating point.

.step i=0.0001
.step i=0.0002
.step i=0.0003
.step i=0.0004
.step i=0.0005
.step i=0.0006
.step i=0.0007

Date: Mon Mar 06 14:47:31 2017
Total elapsed time: 0.182 seconds.

tnom = 27
temp = 27
method = modified trap
totiter = 485
traniter = 74
tranpoints = 38
accept = 38
rejected = 0
matrix size = 8
fillins = 1
solver = Normal
Matrix Compiler1: 408 bytes object code size
Matrix Compiler2: off  [0.3]/0.4/0.5


