Circuit: * C:\Users\bluemann\Desktop\files\lts\PUO\Draft2.asc

Direct Newton iteration for .op point succeeded.

Date: Mon Mar 06 15:41:19 2017
Total elapsed time: 0.025 seconds.

tnom = 27
temp = 27
method = trap
totiter = 10
traniter = 0
tranpoints = 0
accept = 0
rejected = 0
matrix size = 13
fillins = 0
solver = Normal
Matrix Compiler1:      35 opcodes
Matrix Compiler2: 959 bytes object code size

